<?xml version="1.0" encoding="UTF-8"?>

<!-- generated on 2024-10-15 09:47:47.442454 by osmWebWizard.py v1_20_0+0002-343658e7c64
<configuration>
    <net-file value="C:\Program Files (x86)\Eclipse\Sumo\tools\2024-10-15-09-47-33\osm.net.xml.gz"/>
    <output-trip-file value="C:\Program Files (x86)\Eclipse\Sumo\tools\2024-10-15-09-47-33\osm.passenger.trips.xml"/>
    <route-file value="C:\Program Files (x86)\Eclipse\Sumo\tools\2024-10-15-09-47-33\osm.passenger.rou.xml"/>
    <prefix value="veh"/>
    <trip-attributes value="departLane=&quot;best&quot;"/>
    <fringe-start-attributes value="departSpeed=&quot;max&quot;"/>
    <vehicle-class value="passenger"/>
    <lanes value="True"/>
    <fringe-factor value="5"/>
    <allow-fringe.min-length value="1000.0"/>
    <via-edge-types value="highway.motorway,highway.motorway_link,highway.trunk_link,highway.primary_link,highway.secondary_link,highway.tertiary_link"/>
    <min-distance value="300.0"/>
    <min-distance.fringe value="10.0"/>
    <remove-loops value="True"/>
    <validate value="True"/>
    <insertion-density value="12.0"/>
</configuration>
-->

<!-- generated on 2024-10-15 09:47:47 by Eclipse SUMO duarouter Version 1.20.0
<configuration xmlns:xsi="http://www.w3.org/2001/XMLSchema-instance" xsi:noNamespaceSchemaLocation="http://sumo.dlr.de/xsd/duarouterConfiguration.xsd">

    <input>
        <net-file value="C:\Program Files (x86)\Eclipse\Sumo\tools\2024-10-15-09-47-33\osm.net.xml.gz"/>
        <route-files value="C:\Program Files (x86)\Eclipse\Sumo\tools\2024-10-15-09-47-33\osm.passenger.trips.xml"/>
    </input>

    <output>
        <output-file value="C:\Program Files (x86)\Eclipse\Sumo\tools\2024-10-15-09-47-33\osm.passenger.trips.xml.tmp"/>
        <alternatives-output value="NUL"/>
        <write-trips value="true"/>
    </output>

    <processing>
        <remove-loops value="true"/>
    </processing>

    <time>
        <begin value="0.0"/>
        <end value="3600.0"/>
    </time>

    <report>
        <no-warnings value="true"/>
        <ignore-errors value="true"/>
        <no-step-log value="true"/>
    </report>

</configuration>
-->

<routes xmlns:xsi="http://www.w3.org/2001/XMLSchema-instance" xsi:noNamespaceSchemaLocation="http://sumo.dlr.de/xsd/routes_file.xsd">
    <vType id="veh_passenger" vClass="passenger"/>
    <trip id="veh0" type="veh_passenger" depart="0.00" departLane="best" from="360935208#0" to="-193026212#0"/>
    <trip id="veh1" type="veh_passenger" depart="4.10" departLane="best" from="193026196#6" to="-457728103"/>
    <trip id="veh2" type="veh_passenger" depart="8.20" departLane="best" departSpeed="max" from="387154801" to="368091947"/>
    <trip id="veh3" type="veh_passenger" depart="12.30" departLane="best" from="540758086" to="193189650"/>
    <trip id="veh4" type="veh_passenger" depart="16.41" departLane="best" from="231292994#0" to="-193026217#0"/>
    <trip id="veh5" type="veh_passenger" depart="20.51" departLane="best" departSpeed="max" from="-468138759" to="305435188#0"/>
    <trip id="veh6" type="veh_passenger" depart="24.61" departLane="best" from="193026213#1" to="377045470#2"/>
    <trip id="veh7" type="veh_passenger" depart="28.71" departLane="best" from="361822383#1" to="344153357"/>
    <trip id="veh8" type="veh_passenger" depart="32.81" departLane="best" from="-468894471#3" to="358981142#0"/>
    <trip id="veh9" type="veh_passenger" depart="36.91" departLane="best" from="465064352#2" to="-192657978"/>
    <trip id="veh10" type="veh_passenger" depart="41.01" departLane="best" from="465064352#0" to="368494311#0"/>
    <trip id="veh11" type="veh_passenger" depart="45.12" departLane="best" departSpeed="max" from="193032309#0" to="358981138#0"/>
    <trip id="veh12" type="veh_passenger" depart="49.22" departLane="best" from="980937241" to="193032317#4"/>
    <trip id="veh14" type="veh_passenger" depart="57.42" departLane="best" from="49874201" to="360924351#1"/>
    <trip id="veh15" type="veh_passenger" depart="61.52" departLane="best" from="465064352#0" to="-377044936#4"/>
    <trip id="veh16" type="veh_passenger" depart="65.62" departLane="best" from="341783954#0" to="981575457#0"/>
    <trip id="veh17" type="veh_passenger" depart="69.72" departLane="best" from="475997383#1" to="360935206"/>
    <trip id="veh18" type="veh_passenger" depart="73.83" departLane="best" from="50301275#0" to="358981130"/>
    <trip id="veh19" type="veh_passenger" depart="77.93" departLane="best" from="368708850#0" to="193030335#1"/>
    <trip id="veh20" type="veh_passenger" depart="82.03" departLane="best" departSpeed="max" from="-505424841" to="-193026208#1"/>
    <trip id="veh21" type="veh_passenger" depart="86.13" departLane="best" from="-193311141#4" to="470006995#0"/>
    <trip id="veh22" type="veh_passenger" depart="90.23" departLane="best" from="239630755" to="193026199#3"/>
    <trip id="veh23" type="veh_passenger" depart="94.33" departLane="best" from="360935206" to="193189650"/>
    <trip id="veh24" type="veh_passenger" depart="98.44" departLane="best" from="193133896#0" to="193325340"/>
    <trip id="veh25" type="veh_passenger" depart="102.54" departLane="best" departSpeed="max" from="192657978" to="978455013#2"/>
    <trip id="veh26" type="veh_passenger" depart="106.64" departLane="best" from="361822381#1" to="360933444"/>
    <trip id="veh27" type="veh_passenger" depart="110.74" departLane="best" departSpeed="max" from="-366529377" to="377044936#3"/>
    <trip id="veh28" type="veh_passenger" depart="114.84" departLane="best" from="-366528694#2" to="193447773#0"/>
    <trip id="veh29" type="veh_passenger" depart="118.94" departLane="best" from="989405402#2" to="372719848#1"/>
    <trip id="veh30" type="veh_passenger" depart="123.04" departLane="best" from="344153349" to="368486584#3"/>
    <trip id="veh31" type="veh_passenger" depart="127.15" departLane="best" from="49793804#1" to="457493243#1"/>
    <trip id="veh32" type="veh_passenger" depart="131.25" departLane="best" departSpeed="max" from="-505424841" to="-193026224#1"/>
    <trip id="veh33" type="veh_passenger" depart="135.35" departLane="best" from="193030322#1" to="193026196#6"/>
    <trip id="veh34" type="veh_passenger" depart="139.45" departLane="best" from="-406490708#1" to="978487723#1"/>
    <trip id="veh35" type="veh_passenger" depart="143.55" departLane="best" from="50676752#1" to="193030335#4"/>
    <trip id="veh36" type="veh_passenger" depart="147.65" departLane="best" from="368494305#2" to="199353266#2"/>
    <trip id="veh37" type="veh_passenger" depart="151.75" departLane="best" from="613070677#0" to="-253047934#1"/>
    <trip id="veh38" type="veh_passenger" depart="155.86" departLane="best" from="344153356#1" to="193023735#1"/>
    <trip id="veh39" type="veh_passenger" depart="159.96" departLane="best" from="358980058#0" to="556516580"/>
    <trip id="veh40" type="veh_passenger" depart="164.06" departLane="best" from="193811246#1" to="-429888406"/>
    <trip id="veh41" type="veh_passenger" depart="168.16" departLane="best" departSpeed="max" from="990422497#0" to="330066204#0"/>
    <trip id="veh42" type="veh_passenger" depart="172.26" departLane="best" from="-199353266#4" to="193030335#3"/>
    <trip id="veh43" type="veh_passenger" depart="176.36" departLane="best" from="253047824#2" to="360935211"/>
    <trip id="veh44" type="veh_passenger" depart="180.46" departLane="best" from="457493243#2" to="231958643#1"/>
    <trip id="veh45" type="veh_passenger" depart="184.57" departLane="best" from="-193032317#1" to="193809812"/>
    <trip id="veh46" type="veh_passenger" depart="188.67" departLane="best" departSpeed="max" from="990422497#0" to="344153341"/>
    <trip id="veh47" type="veh_passenger" depart="192.77" departLane="best" from="981575457#1" to="505424841"/>
    <trip id="veh48" type="veh_passenger" depart="196.87" departLane="best" from="193026200#0" to="377032930"/>
    <trip id="veh49" type="veh_passenger" depart="200.97" departLane="best" from="368486584#2" to="344153345#1"/>
    <trip id="veh50" type="veh_passenger" depart="205.07" departLane="best" from="-253047826#2" to="232064218#3"/>
    <trip id="veh51" type="veh_passenger" depart="209.17" departLane="best" from="253047825#1" to="980937240#0"/>
    <trip id="veh52" type="veh_passenger" depart="213.28" departLane="best" from="50676752#0" to="193023737"/>
    <trip id="veh53" type="veh_passenger" depart="217.38" departLane="best" from="301521097#1" to="-366529376"/>
    <trip id="veh54" type="veh_passenger" depart="221.48" departLane="best" from="-193026206#3" to="361822383#1"/>
    <trip id="veh55" type="veh_passenger" depart="225.58" departLane="best" from="358981142#2" to="468896811"/>
    <trip id="veh56" type="veh_passenger" depart="229.68" departLane="best" from="-406078189#1" to="344153341"/>
    <trip id="veh57" type="veh_passenger" depart="233.78" departLane="best" departSpeed="max" from="-184515614" to="193030342"/>
    <trip id="veh58" type="veh_passenger" depart="237.89" departLane="best" from="50676753#0" to="49874201"/>
    <trip id="veh59" type="veh_passenger" depart="241.99" departLane="best" from="193026212#5" to="-193032309#0"/>
    <trip id="veh60" type="veh_passenger" depart="246.09" departLane="best" from="50676752#1" to="979885209"/>
    <trip id="veh61" type="veh_passenger" depart="250.19" departLane="best" from="406069596" to="-274631585#0"/>
    <trip id="veh62" type="veh_passenger" depart="254.29" departLane="best" from="-193132123#0" to="406062451#1"/>
    <trip id="veh63" type="veh_passenger" depart="258.39" departLane="best" from="406018091" to="-305435188#0"/>
    <trip id="veh64" type="veh_passenger" depart="262.49" departLane="best" from="259426347#1" to="358563417#1"/>
    <trip id="veh65" type="veh_passenger" depart="266.60" departLane="best" from="192657712#7" to="50783246"/>
    <trip id="veh66" type="veh_passenger" depart="270.70" departLane="best" from="231292994#1" to="406078189#0"/>
    <trip id="veh67" type="veh_passenger" depart="274.80" departLane="best" from="344153329#0" to="377044936#4"/>
    <trip id="veh68" type="veh_passenger" depart="278.90" departLane="best" from="-396378809#3" to="193030335#0"/>
    <trip id="veh69" type="veh_passenger" depart="283.00" departLane="best" departSpeed="max" from="990422497#0" to="-366528694#6"/>
    <trip id="veh70" type="veh_passenger" depart="287.10" departLane="best" departSpeed="max" from="-270890210#3" to="-458141152#0"/>
    <trip id="veh71" type="veh_passenger" depart="291.20" departLane="best" departSpeed="max" from="193032308#0" to="358981139#4"/>
    <trip id="veh72" type="veh_passenger" depart="295.31" departLane="best" departSpeed="max" from="-505424841" to="-429888406"/>
    <trip id="veh73" type="veh_passenger" depart="299.41" departLane="best" from="-193133891" to="360935211"/>
    <trip id="veh74" type="veh_passenger" depart="303.51" departLane="best" departSpeed="max" from="-505424841" to="613070677#0"/>
    <trip id="veh75" type="veh_passenger" depart="307.61" departLane="best" from="50014718#4" to="193032315#4"/>
    <trip id="veh76" type="veh_passenger" depart="311.71" departLane="best" departSpeed="max" from="-540518085" to="368091899#2"/>
    <trip id="veh77" type="veh_passenger" depart="315.81" departLane="best" from="-424816480#0" to="-305435189"/>
    <trip id="veh78" type="veh_passenger" depart="319.91" departLane="best" from="-912503366#1" to="358980528#0"/>
    <trip id="veh79" type="veh_passenger" depart="324.02" departLane="best" from="259426346#2" to="462356162#1"/>
    <trip id="veh80" type="veh_passenger" depart="328.12" departLane="best" from="465064352#1" to="-377044933#0"/>
    <trip id="veh81" type="veh_passenger" depart="332.22" departLane="best" from="204278072#2" to="232064218#0"/>
    <trip id="veh82" type="veh_passenger" depart="336.32" departLane="best" from="231292994#2" to="259426346#0"/>
    <trip id="veh83" type="veh_passenger" depart="340.42" departLane="best" from="377044936#5" to="368091941#1"/>
    <trip id="veh84" type="veh_passenger" depart="344.52" departLane="best" from="988835218" to="199353266#5"/>
    <trip id="veh85" type="veh_passenger" depart="348.62" departLane="best" from="-199353266#2" to="193032317#6"/>
    <trip id="veh86" type="veh_passenger" depart="352.73" departLane="best" from="50301275#0" to="154237216#0"/>
    <trip id="veh87" type="veh_passenger" depart="356.83" departLane="best" from="377044936#3" to="240733802"/>
    <trip id="veh88" type="veh_passenger" depart="360.93" departLane="best" from="231292994#0" to="193026199#4"/>
    <trip id="veh89" type="veh_passenger" depart="365.03" departLane="best" from="-868802299" to="910969911#0"/>
    <trip id="veh90" type="veh_passenger" depart="369.13" departLane="best" from="232064218#4" to="505424841"/>
    <trip id="veh92" type="veh_passenger" depart="377.34" departLane="best" departSpeed="max" from="990422497#0" to="50012063#1"/>
    <trip id="veh93" type="veh_passenger" depart="381.44" departLane="best" from="981575456" to="-912503366#1"/>
    <trip id="veh94" type="veh_passenger" depart="385.54" departLane="best" from="499724238" to="-361950929#0"/>
    <trip id="veh95" type="veh_passenger" depart="389.64" departLane="best" from="-274631585#0" to="406078191#1"/>
    <trip id="veh96" type="veh_passenger" depart="393.74" departLane="best" from="194356983" to="-193032309#0"/>
    <trip id="veh97" type="veh_passenger" depart="397.84" departLane="best" from="193189977" to="982048929"/>
    <trip id="veh98" type="veh_passenger" depart="401.94" departLane="best" from="253047825#3" to="231958643#1"/>
    <trip id="veh99" type="veh_passenger" depart="406.05" departLane="best" from="980937241" to="989405402#2"/>
    <trip id="veh100" type="veh_passenger" depart="410.15" departLane="best" from="344153346#0" to="372642573"/>
    <trip id="veh101" type="veh_passenger" depart="414.25" departLane="best" departSpeed="max" from="-360924351#1" to="-193026217#1"/>
    <trip id="veh102" type="veh_passenger" depart="418.35" departLane="best" from="344153330#1" to="396388572#0"/>
    <trip id="veh103" type="veh_passenger" depart="422.45" departLane="best" from="193032315#2" to="358981136#1"/>
    <trip id="veh104" type="veh_passenger" depart="426.55" departLane="best" from="305172075#1" to="503896684"/>
    <trip id="veh105" type="veh_passenger" depart="430.65" departLane="best" from="-361822382#0" to="981013922"/>
    <trip id="veh106" type="veh_passenger" depart="434.76" departLane="best" from="193311141#4" to="-372786655"/>
    <trip id="veh108" type="veh_passenger" depart="442.96" departLane="best" departSpeed="max" from="-50676756" to="-259401634#1"/>
    <trip id="veh109" type="veh_passenger" depart="447.06" departLane="best" from="226668206#1" to="358981136#1"/>
    <trip id="veh110" type="veh_passenger" depart="451.16" departLane="best" departSpeed="max" from="321744812" to="978455012#0"/>
    <trip id="veh111" type="veh_passenger" depart="455.26" departLane="best" from="396388560" to="369024791#1"/>
    <trip id="veh112" type="veh_passenger" depart="459.36" departLane="best" from="368091941#1" to="193026224#5"/>
    <trip id="veh113" type="veh_passenger" depart="463.47" departLane="best" from="193030322#2" to="396388577#0"/>
    <trip id="veh114" type="veh_passenger" depart="467.57" departLane="best" from="193133896#0" to="253047826#2"/>
    <trip id="veh115" type="veh_passenger" depart="471.67" departLane="best" departSpeed="max" from="990422497#0" to="989405402#2"/>
    <trip id="veh116" type="veh_passenger" depart="475.77" departLane="best" from="-193134675#0" to="-406078191#1"/>
    <trip id="veh117" type="veh_passenger" depart="479.87" departLane="best" departSpeed="max" from="192657978" to="978455012#0"/>
    <trip id="veh118" type="veh_passenger" depart="483.97" departLane="best" from="507082099" to="50944365#3"/>
    <trip id="veh119" type="veh_passenger" depart="488.07" departLane="best" from="193133893#0" to="-360051162"/>
    <trip id="veh120" type="veh_passenger" depart="492.18" departLane="best" departSpeed="max" from="49793803#0" to="368708847#5"/>
    <trip id="veh121" type="veh_passenger" depart="496.28" departLane="best" from="358981142#4" to="982058336"/>
    <trip id="veh122" type="veh_passenger" depart="500.38" departLane="best" from="-364699454#1" to="-192657978"/>
    <trip id="veh123" type="veh_passenger" depart="504.48" departLane="best" from="471955628" to="193026224#4"/>
    <trip id="veh124" type="veh_passenger" depart="508.58" departLane="best" from="366529375#1" to="978455013#3"/>
    <trip id="veh125" type="veh_passenger" depart="512.68" departLane="best" departSpeed="max" from="-240733802" to="358977623#1"/>
    <trip id="veh126" type="veh_passenger" depart="516.79" departLane="best" from="-193026196#1" to="360924351#1"/>
    <trip id="veh127" type="veh_passenger" depart="520.89" departLane="best" departSpeed="max" from="372786655" to="396378809#0"/>
    <trip id="veh128" type="veh_passenger" depart="524.99" departLane="best" from="360935205#0" to="193023737"/>
    <trip id="veh129" type="veh_passenger" depart="529.09" departLane="best" departSpeed="max" from="301521093#0" to="613070677#0"/>
    <trip id="veh130" type="veh_passenger" depart="533.19" departLane="best" from="49874201" to="-194356983"/>
    <trip id="veh131" type="veh_passenger" depart="537.29" departLane="best" from="231292994#2" to="193026199#1"/>
    <trip id="veh132" type="veh_passenger" depart="541.39" departLane="best" from="-192657712#0" to="-406234080#0"/>
    <trip id="veh133" type="veh_passenger" depart="545.50" departLane="best" from="360935207#0" to="193023733#2"/>
    <trip id="veh134" type="veh_passenger" depart="549.60" departLane="best" from="396378809#0" to="358563419#1"/>
    <trip id="veh135" type="veh_passenger" depart="553.70" departLane="best" from="507082099" to="193026196#4"/>
    <trip id="veh136" type="veh_passenger" depart="557.80" departLane="best" departSpeed="max" from="-193134675#2" to="540758088#1"/>
    <trip id="veh137" type="veh_passenger" depart="561.90" departLane="best" departSpeed="max" from="554557928#0" to="344153357"/>
    <trip id="veh138" type="veh_passenger" depart="566.00" departLane="best" departSpeed="max" from="49793803#0" to="358980527"/>
    <trip id="veh139" type="veh_passenger" depart="570.10" departLane="best" from="-360922571#0" to="-274631585#1"/>
    <trip id="veh140" type="veh_passenger" depart="574.21" departLane="best" from="-193026213#0" to="556516580"/>
    <trip id="veh141" type="veh_passenger" depart="578.31" departLane="best" from="462356162#0" to="505424841"/>
    <trip id="veh142" type="veh_passenger" depart="582.41" departLane="best" from="55354009#5" to="406069597#0"/>
    <trip id="veh143" type="veh_passenger" depart="586.51" departLane="best" from="-868802299" to="-200672740#2"/>
    <trip id="veh144" type="veh_passenger" depart="590.61" departLane="best" from="-406078191#1" to="548030803#0"/>
    <trip id="veh146" type="veh_passenger" depart="598.81" departLane="best" departSpeed="max" from="-360924351#1" to="368494308#0"/>
    <trip id="veh147" type="veh_passenger" depart="602.92" departLane="best" departSpeed="max" from="50301277" to="982044003#1"/>
    <trip id="veh148" type="veh_passenger" depart="607.02" departLane="best" from="465064352#2" to="540758086"/>
    <trip id="veh149" type="veh_passenger" depart="611.12" departLane="best" from="193026212#5" to="391002482"/>
    <trip id="veh150" type="veh_passenger" depart="615.22" departLane="best" from="193030340" to="957244973#2"/>
    <trip id="veh151" type="veh_passenger" depart="619.32" departLane="best" from="465064352#2" to="193026196#5"/>
    <trip id="veh152" type="veh_passenger" depart="623.42" departLane="best" departSpeed="max" from="429888406" to="-239630755"/>
    <trip id="veh153" type="veh_passenger" depart="627.52" departLane="best" from="504333064" to="505424841"/>
    <trip id="veh155" type="veh_passenger" depart="635.73" departLane="best" departSpeed="max" from="253047934#0" to="-193030327#2"/>
    <trip id="veh156" type="veh_passenger" depart="639.83" departLane="best" from="462346954#0" to="-462428404#0"/>
    <trip id="veh157" type="veh_passenger" depart="643.93" departLane="best" from="193026212#2" to="-377044936#1"/>
    <trip id="veh158" type="veh_passenger" depart="648.03" departLane="best" from="193030335#5" to="50676752#1"/>
    <trip id="veh159" type="veh_passenger" depart="652.13" departLane="best" from="981575455#0" to="-193026200#0"/>
    <trip id="veh160" type="veh_passenger" depart="656.23" departLane="best" from="360935208#2" to="199880989#0"/>
    <trip id="veh161" type="veh_passenger" depart="660.34" departLane="best" from="982058336" to="344153345#1"/>
    <trip id="veh162" type="veh_passenger" depart="664.44" departLane="best" from="957244973#0" to="-253047934#0"/>
    <trip id="veh163" type="veh_passenger" depart="668.54" departLane="best" from="981575457#0" to="-366529375#1"/>
    <trip id="veh164" type="veh_passenger" depart="672.64" departLane="best" from="980996795" to="193026196#1"/>
    <trip id="veh165" type="veh_passenger" depart="676.74" departLane="best" from="253047824#0" to="232064218#3"/>
    <trip id="veh166" type="veh_passenger" depart="680.84" departLane="best" from="377044936#4" to="193030335#3"/>
    <trip id="veh167" type="veh_passenger" depart="684.95" departLane="best" from="358981139#4" to="330066204#1"/>
    <trip id="veh168" type="veh_passenger" depart="689.05" departLane="best" from="-193311141#2" to="358980598#1"/>
    <trip id="veh169" type="veh_passenger" depart="693.15" departLane="best" from="191706895#0" to="369024788#0"/>
    <trip id="veh170" type="veh_passenger" depart="697.25" departLane="best" departSpeed="max" from="-184515614" to="912503366#0"/>
    <trip id="veh171" type="veh_passenger" depart="701.35" departLane="best" departSpeed="max" from="344153326" to="372642573"/>
    <trip id="veh172" type="veh_passenger" depart="705.45" departLane="best" from="-396378809#1" to="368091905#1"/>
    <trip id="veh174" type="veh_passenger" depart="713.66" departLane="best" from="193026224#6" to="396388579"/>
    <trip id="veh175" type="veh_passenger" depart="717.76" departLane="best" from="377032930" to="193026224#6"/>
    <trip id="veh176" type="veh_passenger" depart="721.86" departLane="best" from="193026217#0" to="225971208#3"/>
    <trip id="veh177" type="veh_passenger" depart="725.96" departLane="best" from="-199353266#2" to="193026213#1"/>
    <trip id="veh178" type="veh_passenger" depart="730.06" departLane="best" from="274631585#3" to="-259401642"/>
    <trip id="veh179" type="veh_passenger" depart="734.16" departLane="best" from="957244973#2" to="368091947"/>
    <trip id="veh180" type="veh_passenger" depart="738.26" departLane="best" departSpeed="max" from="554557928#0" to="982044004#0"/>
    <trip id="veh181" type="veh_passenger" depart="742.37" departLane="best" from="193026210#2" to="344153358#0"/>
    <trip id="veh182" type="veh_passenger" depart="746.47" departLane="best" departSpeed="max" from="-184515614" to="193026206#1"/>
    <trip id="veh183" type="veh_passenger" depart="750.57" departLane="best" from="507082099" to="358981133#0"/>
    <trip id="veh184" type="veh_passenger" depart="754.67" departLane="best" from="364699454#4" to="-259401634#1"/>
    <trip id="veh185" type="veh_passenger" depart="758.77" departLane="best" from="232064218#3" to="406078191#1"/>
    <trip id="veh186" type="veh_passenger" depart="762.87" departLane="best" from="259426346#2" to="556516580"/>
    <trip id="veh187" type="veh_passenger" depart="766.97" departLane="best" from="462356162#0" to="362195741#1"/>
    <trip id="veh188" type="veh_passenger" depart="771.08" departLane="best" departSpeed="max" from="-193809812" to="330750483#7"/>
    <trip id="veh189" type="veh_passenger" depart="775.18" departLane="best" from="981575455#0" to="-366528694#4"/>
    <trip id="veh190" type="veh_passenger" depart="779.28" departLane="best" from="471955628" to="396388577#0"/>
    <trip id="veh192" type="veh_passenger" depart="787.48" departLane="best" from="-396378803#1" to="-193026212#0"/>
    <trip id="veh193" type="veh_passenger" depart="791.58" departLane="best" departSpeed="max" from="-705613417#1" to="358977809"/>
    <trip id="veh194" type="veh_passenger" depart="795.68" departLane="best" from="499724239#0" to="-193032316#2"/>
    <trip id="veh195" type="veh_passenger" depart="799.79" departLane="best" from="225971208#2" to="360935211"/>
    <trip id="veh196" type="veh_passenger" depart="803.89" departLane="best" from="-377045470#1" to="368494310#1"/>
    <trip id="veh197" type="veh_passenger" depart="807.99" departLane="best" from="301521095#0" to="-754719368#4"/>
    <trip id="veh198" type="veh_passenger" depart="812.09" departLane="best" from="368494305#2" to="-192657978"/>
    <trip id="veh199" type="veh_passenger" depart="816.19" departLane="best" departSpeed="max" from="396388569#0" to="-258524194#0"/>
    <trip id="veh200" type="veh_passenger" depart="820.29" departLane="best" departSpeed="max" from="-240733802" to="231958644#2"/>
    <trip id="veh201" type="veh_passenger" depart="824.40" departLane="best" departSpeed="max" from="-368079771" to="980996794"/>
    <trip id="veh202" type="veh_passenger" depart="828.50" departLane="best" departSpeed="max" from="305435191" to="193030337#3"/>
    <trip id="veh203" type="veh_passenger" depart="832.60" departLane="best" from="-754768289" to="503896683#0"/>
    <trip id="veh204" type="veh_passenger" depart="836.70" departLane="best" from="253047825#5" to="469561203"/>
    <trip id="veh205" type="veh_passenger" depart="840.80" departLane="best" from="368091899#1" to="-256807902#0"/>
    <trip id="veh206" type="veh_passenger" depart="844.90" departLane="best" from="358981131#0" to="980733855#0"/>
    <trip id="veh207" type="veh_passenger" depart="849.00" departLane="best" from="540758086" to="360935200#0"/>
    <trip id="veh208" type="veh_passenger" depart="853.11" departLane="best" from="377032930" to="305435188#0"/>
    <trip id="veh209" type="veh_passenger" depart="857.21" departLane="best" from="485024034" to="344153358#0"/>
    <trip id="veh210" type="veh_passenger" depart="861.31" departLane="best" from="55354009#2" to="396378811#0"/>
    <trip id="veh211" type="veh_passenger" depart="865.41" departLane="best" from="259426347#1" to="192657712#5"/>
    <trip id="veh212" type="veh_passenger" depart="869.51" departLane="best" from="-754719368#2" to="-361822381#2"/>
    <trip id="veh213" type="veh_passenger" depart="873.61" departLane="best" from="406018091" to="344153331"/>
    <trip id="veh214" type="veh_passenger" depart="877.71" departLane="best" from="360930642" to="193026198#1"/>
    <trip id="veh215" type="veh_passenger" depart="881.82" departLane="best" from="-193189650" to="193026205#1"/>
    <trip id="veh216" type="veh_passenger" depart="885.92" departLane="best" from="193023733#2" to="193030337#3"/>
    <trip id="veh217" type="veh_passenger" depart="890.02" departLane="best" from="344153329#0" to="-329968562"/>
    <trip id="veh218" type="veh_passenger" depart="894.12" departLane="best" departSpeed="max" from="-505424841" to="231958644#1"/>
    <trip id="veh219" type="veh_passenger" depart="898.22" departLane="best" from="368708850#2" to="-193032313"/>
    <trip id="veh221" type="veh_passenger" depart="906.42" departLane="best" from="225971208#3" to="396378809#5"/>
    <trip id="veh222" type="veh_passenger" depart="910.53" departLane="best" from="226668206#1" to="613070677#0"/>
    <trip id="veh223" type="veh_passenger" depart="914.63" departLane="best" from="358980058#0" to="368494308#2"/>
    <trip id="veh224" type="veh_passenger" depart="918.73" departLane="best" from="193189978" to="-192657978"/>
    <trip id="veh225" type="veh_passenger" depart="922.83" departLane="best" from="193032315#3" to="396388579"/>
    <trip id="veh227" type="veh_passenger" depart="931.03" departLane="best" from="226668206#0" to="396388572#0"/>
    <trip id="veh228" type="veh_passenger" depart="935.13" departLane="best" from="344153340#1" to="360924351#1"/>
    <trip id="veh229" type="veh_passenger" depart="939.24" departLane="best" from="-468894471#3" to="-429888406"/>
    <trip id="veh230" type="veh_passenger" depart="943.34" departLane="best" from="231972355#1" to="193026213#0"/>
    <trip id="veh231" type="veh_passenger" depart="947.44" departLane="best" departSpeed="max" from="193032308#0" to="368091971#1"/>
    <trip id="veh232" type="veh_passenger" depart="951.54" departLane="best" from="-199353266#5" to="-361822383#0"/>
    <trip id="veh233" type="veh_passenger" depart="955.64" departLane="best" from="-259228704" to="274631585#3"/>
    <trip id="veh234" type="veh_passenger" depart="959.74" departLane="best" departSpeed="max" from="360926380" to="-193026212#2"/>
    <trip id="veh235" type="veh_passenger" depart="963.85" departLane="best" from="193809813#1" to="358980056#2"/>
    <trip id="veh236" type="veh_passenger" depart="967.95" departLane="best" from="330750483#5" to="258524192#2"/>
    <trip id="veh237" type="veh_passenger" depart="972.05" departLane="best" from="-193030337#4" to="193447773#0"/>
    <trip id="veh238" type="veh_passenger" depart="976.15" departLane="best" from="-406490708#2" to="193032313"/>
    <trip id="veh239" type="veh_passenger" depart="980.25" departLane="best" departSpeed="max" from="396388576" to="193447773#0"/>
    <trip id="veh240" type="veh_passenger" depart="984.35" departLane="best" departSpeed="max" from="396388569#0" to="344153340#2"/>
    <trip id="veh242" type="veh_passenger" depart="992.56" departLane="best" from="193026208#0" to="344153349"/>